
.MODEL 1N4001 D (
+   IS =  1.42e-14
+   RS =  0.042
+   CJO =  4.24e-11
+   VJ =  0.75
+   TT =  7.2e-06
+   M =  0.333
+   BV =  1e+30
+   N =  1
+   EG =  1.11
+   XTI =  3
+   KF =  0
+   AF =  1
+   FC =  0.5
+   IBV =  0.001
+   TNOM =  27
)
