
.MODEL ideal PNP (
+   IS =  1e-08
+   BF =  60
+   BR =  1
+   RB =  60
+   RE =  0
+   RC =  0
+   CJS =  0
+   CJE =  1.5e-08
+   CJC =  2e-08
+   VJE =  0.3
+   VJC =  0.3
+   TF =  1.6e-08
+   TR =  1.6e-07
+   MJE =  0.33
+   MJC =  0.33
+   VA =  1e+30
+   ISE =  0
+   IKF =  1e+30
+   NE =  1.5
+   NF =  1
+   NR =  1
+   VAR =  1e+30
+   IKR =  1e+30
+   ISC =  1e-08
+   NC =  2
+   IRB =  1e+30
+   RBM =  0
+   XTF =  0
+   VTF =  1e+30
+   ITF =  0
+   PTF =  0
+   XCJC =  1
+   VJS =  0.75
+   MJS =  0
+   XTB =  0
+   EG =  0.72
+   XTI =  3
+   KF =  0
+   AF =  1
+   FC =  0.5
+   TNOM =  27
)

.MODEL GT-308b PNP (
+   IS =  1e-08
+   BF =  50
+   BR =  1
+   RB =  0
+   RE =  0
+   RC =  0
+   CJS =  0
+   CJE =  0
+   CJC =  0
+   VJE =  0.75
+   VJC =  0.75
+   TF =  0
+   TR =  0
+   MJE =  0.33
+   MJC =  0.33
+   VA =  1e+30
+   ISE =  0
+   IKF =  1e+30
+   NE =  1.5
+   NF =  1
+   NR =  1
+   VAR =  1e+30
+   IKR =  1e+30
+   ISC =  0
+   NC =  2
+   IRB =  1e+30
+   RBM =  0
+   XTF =  0
+   VTF =  1e+30
+   ITF =  0
+   PTF =  0
+   XCJC =  1
+   VJS =  0.75
+   MJS =  0
+   XTB =  0
+   EG =  1.11
+   XTI =  3
+   KF =  0
+   AF =  1
+   FC =  0.5
+   TNOM =  27
)

.MODEL maxx1 PNP (
+   IS =  1e-16
+   BF =  50
+   BR =  0.2
+   RB =  60
+   RE =  0
+   RC =  0
+   CJS =  0
+   CJE =  2e-11
+   CJC =  2e-11
+   VJE =  0.75
+   VJC =  0.75
+   TF =  3.183e-08
+   TR =  3.183e-07
+   MJE =  0.5
+   MJC =  0.5
+   VA =  1e+30
+   ISE =  0
+   IKF =  1e+30
+   NE =  1.5
+   NF =  1
+   NR =  1
+   VAR =  1e+30
+   IKR =  1e+30
+   ISC =  0
+   NC =  2
+   IRB =  1e+30
+   RBM =  0
+   XTF =  0
+   VTF =  1e+30
+   ITF =  0
+   PTF =  0
+   XCJC =  1
+   VJS =  0.75
+   MJS =  0
+   XTB =  0
+   EG =  1.11
+   XTI =  3
+   KF =  0
+   AF =  1
+   FC =  0.5
+   TNOM =  27
)
