
.MODEL ideal NPN (
+   IS =  1e-16
+   BF =  100
+   BR =  1
+   RB =  0
+   RE =  0
+   RC =  0
+   CJS =  0
+   CJE =  0
+   CJC =  0
+   VJE =  0.75
+   VJC =  0.75
+   TF =  0
+   TR =  0
+   MJE =  0.33
+   MJC =  0.33
+   VA =  1e+30
+   ISE =  0
+   IKF =  1e+30
+   NE =  1.5
+   NF =  1
+   NR =  1
+   VAR =  1e+30
+   IKR =  1e+30
+   ISC =  0
+   NC =  2
+   IRB =  1e+30
+   RBM =  0
+   XTF =  0
+   VTF =  1e+30
+   ITF =  0
+   PTF =  0
+   XCJC =  1
+   VJS =  0.75
+   MJS =  0
+   XTB =  0
+   EG =  1.11
+   XTI =  3
+   KF =  0
+   AF =  1
+   FC =  0.5
+   TNOM =  27
)

.MODEL ideal2 NPN (
+   IS =  1e-14
+   BF =  50
+   BR =  1
+   RB =  35
+   RE =  0
+   RC =  0
+   CJS =  0
+   CJE =  2e-12
+   CJC =  2.5e-12
+   VJE =  0.75
+   VJC =  0.75
+   TF =  5e-11
+   TR =  5e-10
+   MJE =  0.5
+   MJC =  0.33
+   VA =  1e+30
+   ISE =  0
+   IKF =  1e+30
+   NE =  1.5
+   NF =  1
+   NR =  1
+   VAR =  1e+30
+   IKR =  1e+30
+   ISC =  0
+   NC =  2
+   IRB =  1e+30
+   RBM =  0
+   XTF =  0
+   VTF =  1e+30
+   ITF =  0
+   PTF =  0
+   XCJC =  1
+   VJS =  0.75
+   MJS =  0
+   XTB =  0
+   EG =  1.11
+   XTI =  3
+   KF =  0
+   AF =  1
+   FC =  0.5
+   TNOM =  27
)

.MODEL KT3107A NPN (
+   IS =  1e-16
+   BF =  105
+   BR =  1
+   RB =  0
+   RE =  0
+   RC =  0
+   CJS =  0
+   CJE =  0
+   CJC =  0
+   VJE =  0.7
+   VJC =  0.7
+   TF =  0
+   TR =  0
+   MJE =  0.33
+   MJC =  0.33
+   VA =  1e+30
+   ISE =  0
+   IKF =  1e+30
+   NE =  1.5
+   NF =  1
+   NR =  1
+   VAR =  1e+30
+   IKR =  1e+30
+   ISC =  0
+   NC =  2
+   IRB =  1e+30
+   RBM =  0
+   XTF =  0
+   VTF =  1e+30
+   ITF =  0
+   PTF =  0
+   XCJC =  1
+   VJS =  0.75
+   MJS =  0
+   XTB =  0
+   EG =  1.11
+   XTI =  3
+   KF =  0
+   AF =  1
+   FC =  0.5
+   TNOM =  27
)

.MODEL KT315i NPN (
+   IS =  1e-16
+   BF =  30
+   BR =  1
+   RB =  40
+   RE =  5
+   RC =  0
+   CJS =  0
+   CJE =  0
+   CJC =  1e-11
+   VJE =  0.75
+   VJC =  0.7
+   TF =  6.4e-10
+   TR =  0
+   MJE =  0.33
+   MJC =  0.33
+   VA =  1e+30
+   ISE =  0
+   IKF =  1e+30
+   NE =  1.5
+   NF =  1
+   NR =  1
+   VAR =  1e+30
+   IKR =  1e+30
+   ISC =  0
+   NC =  2
+   IRB =  1e+30
+   RBM =  0
+   XTF =  0
+   VTF =  1e+30
+   ITF =  0
+   PTF =  0
+   XCJC =  1
+   VJS =  0.75
+   MJS =  0
+   XTB =  0
+   EG =  1.11
+   XTI =  3
+   KF =  0
+   AF =  1
+   FC =  0.5
+   TNOM =  27
)

.MODEL KT351a NPN (
+   IS =  1e-16
+   BF =  50
+   BR =  1
+   RB =  40
+   RE =  0
+   RC =  0
+   CJS =  0
+   CJE =  0
+   CJC =  1e-11
+   VJE =  0.75
+   VJC =  0.7
+   TF =  6.4e-10
+   TR =  0
+   MJE =  0.33
+   MJC =  0.33
+   VA =  1e+30
+   ISE =  0
+   IKF =  1e+30
+   NE =  1.5
+   NF =  1
+   NR =  1
+   VAR =  1e+30
+   IKR =  1e+30
+   ISC =  0
+   NC =  2
+   IRB =  1e+30
+   RBM =  0
+   XTF =  0
+   VTF =  1e+30
+   ITF =  0
+   PTF =  0
+   XCJC =  1
+   VJS =  0.75
+   MJS =  0
+   XTB =  0
+   EG =  1.11
+   XTI =  3
+   KF =  0
+   AF =  1
+   FC =  0.5
+   TNOM =  27
)

.MODEL VT2 NPN (
+   IS =  1e-09
+   BF =  50
+   BR =  0.25
+   RB =  35
+   RE =  0
+   RC =  0
+   CJS =  0
+   CJE =  2e-12
+   CJC =  2.5e-12
+   VJE =  0.7
+   VJC =  0.75
+   TF =  5e-11
+   TR =  3.98e-08
+   MJE =  0.5
+   MJC =  0.33
+   VA =  1e+30
+   ISE =  0
+   IKF =  1e+30
+   NE =  1.5
+   NF =  1
+   NR =  1
+   VAR =  1e+30
+   IKR =  1e+30
+   ISC =  0
+   NC =  2
+   IRB =  1e+30
+   RBM =  0
+   XTF =  0
+   VTF =  1e+30
+   ITF =  0
+   PTF =  0
+   XCJC =  1
+   VJS =  0.75
+   MJS =  0
+   XTB =  0
+   EG =  1.11
+   XTI =  3
+   KF =  0
+   AF =  1
+   FC =  0.5
+   TNOM =  25
)

.MODEL VT1 NPN (
+   IS =  1e-14
+   BF =  50
+   BR =  0.01
+   RB =  35
+   RE =  0
+   RC =  5
+   CJS =  0
+   CJE =  2e-12
+   CJC =  2.5e-12
+   VJE =  0.7
+   VJC =  0.75
+   TF =  5e-11
+   TR =  3.98e-08
+   MJE =  0.5
+   MJC =  0.33
+   VA =  1e+30
+   ISE =  0
+   IKF =  1e+30
+   NE =  1.5
+   NF =  1
+   NR =  1
+   VAR =  1e+30
+   IKR =  1e+30
+   ISC =  0
+   NC =  2
+   IRB =  1e+30
+   RBM =  0
+   XTF =  0
+   VTF =  1e+30
+   ITF =  0
+   PTF =  0
+   XCJC =  1
+   VJS =  0.75
+   MJS =  0
+   XTB =  0
+   EG =  1.11
+   XTI =  3
+   KF =  0
+   AF =  1
+   FC =  0.5
+   TNOM =  25
)
